Circuit: * Z:\home\wrath\Desktop\SDG Assignment\q#1\q1.asc

.OP point found by inspection.

Date: Mon Sep 11 11:12:21 2017
Total elapsed time: 0.049 seconds.

tnom = 27
temp = 27
method = modified trap
totiter = 3908
traniter = 3908
tranpoints = 1955
accept = 1689
rejected = 266
matrix size = 3
fillins = 0
solver = Normal
Matrix Compiler1: 50 bytes object code size  0.2/0.2/[0.2]
Matrix Compiler2: 175 bytes object code size  0.2/0.2/[0.2]

