Circuit: * Z:\home\wrath\Desktop\SDG Assignment\Diffrential eqn\Draft12.asc

WARNING: Less than two connections to node NC_01.  This node is used by V2.
WARNING: Less than two connections to node NC_02.  This node is used by V3.
WARNING: Less than two connections to node NC_03.  This node is used by V6.
WARNING: Less than two connections to node NC_04.  This node is used by V8.
WARNING: Less than two connections to node NC_05.  This node is used by V1.
WARNING: Less than two connections to node NC_06.  This node is used by V4.
WARNING: Less than two connections to node NC_07.  This node is used by V5.
WARNING: Less than two connections to node NC_08.  This node is used by V7.
Early termination of direct N-R iteration.
Direct Newton iteration failed to find .op point.  (Use ".option noopiter" to skip.)
Starting Gmin stepping
Gmin = 10
vernier = 0.5
vernier = 0.25
Gmin = 2.62144
vernier = 0.125
vernier = 0.0625
vernier = 0.03125
vernier = 0.015625
Gmin = 2.57107
vernier = 0.0078125
vernier = 0.00390625
vernier = 0.00195313
vernier = 0.000976563
Gmin = 2.57419
vernier = 0.000488281
Gmin = 0
Gmin stepping succeeded in finding the operating point.


Date: Thu Sep 14 18:37:41 2017
Total elapsed time: 0.221 seconds.

tnom = 27
temp = 27
method = modified trap
totiter = 5129
traniter = 3708
tranpoints = 1119
accept = 1104
rejected = 15
matrix size = 46
fillins = 25
solver = Normal
Thread vector: 15.4/9.4[3] 5.8/2.6[3] 3.9/2.0[3] 0.3/0.5[1]  2592/500
Matrix Compiler1: 6.07 KB object code size  1.5/1.0/[0.6]
Matrix Compiler2: 4.40 KB object code size  0.8/1.1/[0.5]

